results/2026-03-03/bilevel_comparisons_single_period/solution_bus_motivation_a_min_max.csv
bus_id,vm_avg,z_voltage
1,1.0004606266325382,1.0
2,1.0004606298048901,1.0
3,1.0078068879731517,1.0
4,1.0004673014151688,1.0
5,1.0078010520335507,1.0
6,1.014889156509222,1.0
7,1.004453151272359,1.0
8,1.0088126580615355,1.0
9,1.0088126580615355,1.0
10,1.0088126576743006,1.0
11,1.0004672977028108,1.0
12,1.0070499219759685,1.0
13,1.0080940957074307,1.0
14,1.0044597958414194,1.0
15,1.0088126580615355,1.0
16,1.0088126580615355,1.0
